%chk=gausopt.chk
%NProcShared=20
%mem=16GB
#p opt freq M062X/6-311g(d,p) scrf=(solvent=carbontetrachloride,pcm)

Title Card Required

0 2
 N                  1.85944789   -0.82324369    0.11605492
 C                  2.90818353   -0.23072075    0.97696968
 C                  3.11292591    1.23611572    0.59791949
 C                  3.36562128    1.40555404   -0.89712795
 C                  2.21125815    0.80281428   -1.69202944
 C                  1.99626296   -0.67174395   -1.35140810
 O                  1.21638429   -1.82274998    0.56693669
 C                  0.78593723   -1.25002514   -2.06383308
 C                  2.54159652   -0.40222763    2.44108195
 H                  3.94910323    1.62657603    1.18301702
 H                  2.22109979    1.80288413    0.89050953
 H                  2.39358882    0.88253165   -2.76641536
 H                  1.28385068    1.34645447   -1.47725915
 H                  0.93479743   -1.15765567   -3.14093950
 H                 -0.11632480   -0.69773132   -1.79025532
 H                  0.64180257   -2.30006574   -1.81657871
 H                  1.58956432    0.09040305    2.65326774
 H                  3.31654221    0.05669393    3.05731997
 H                  2.44950222   -1.45287889    2.70638179
 H                  3.48580696    2.46233900   -1.14400924
 H                  4.30074468    0.90256525   -1.16907478
 C                 -3.29969003    0.05173819    0.01072060
 C                 -1.92275283   -0.10636092    0.30283015
 C                 -1.06684991    0.98617790    0.47955206
 C                 -1.61103939    2.25116076    0.35599447
 C                 -2.97859321    2.43210287    0.06765108
 C                 -3.82191177    1.35042171   -0.10239368
 C                 -3.84747738   -1.26926444   -0.10887240
 C                 -2.81720368   -2.14274399    0.10313823
 H                 -0.01820581    0.83575397    0.70779150
 H                 -0.97637700    3.11986766    0.48828455
 H                 -3.37126019    3.43815296   -0.01912817
 H                 -4.87287578    1.50031434   -0.32253459
 H                 -4.87049448   -1.53348423   -0.32347282
 H                 -0.73076679   -1.84067744    0.48615038
 N                 -1.65915748   -1.45075636    0.35806249
 H                 -2.81494726   -3.22142842    0.09554507
 C                  3.25882573   -1.46105830   -1.74449602
 H                  3.10546106   -2.50120327   -1.54580597
 H                  3.45600315   -1.32236467   -2.78698590
 H                  4.09224779   -1.10802643   -1.17381559
 C                  4.20511660   -1.00275247    0.67114022
 H                  4.83088373   -1.00680160    1.53906827
 H                  3.96527862   -2.00956655    0.39965699
 H                  4.72030290   -0.52830063   -0.13779645



